3、CSEE-VS(66-2023)/VC.m
function mpc = VC
%   MATPOWER 

%% MATPOWER Case Format : Version 2 
mpc.version = '2';

%%-----  Power Flow Data  -----%% 
%% system MVA base
mpc.baseMVA = 100; 

%% bus data 
%	bus_i	type	Pd	Qd	Gs	Bs	area	Vm	Va	baseKV	zone	Vmax	Vmin
mpc.bus = [
    1    1    0    0    0    0        1    0.9849381743360424    -9.811503210516022    1    1    1.06    0.94;
    2    1    0    0    0    0        1    0.983268578186659    -10.41641702498319    1    1    1.06    0.94;
    3    1    0    0    0    0        1    0.985591633945323    -9.846676759962723    1    1    1.06    0.94;
    4    1    0    0    0    0        1    0.9824054466250602    -10.1238655007515    1    1    1.06    0.94;
    5    1    0    0    0    0        1    0.9868681295678744    -7.755139723909166    1    1    1.06    0.94;
    6    1    0    0    0    0        1    0.9869512045042174    -7.564357926398948    1    1    1.06    0.94;
    7    1    0    0    0    0        1    0.9833446704411831    -10.17931755022291    1    1    1.06    0.94;
    8    1    0    0    0    0        1    0.9865209894437172    -8.124373328368204    1    1    1.06    0.94;
    9    1    0    0    0    0        1    0.9871677552919916    -8.064720437560839    1    1    1.06    0.94;
    10    1    0    0    0    0        1    0.9822648948350965    -9.92639362535003    1    1    1.06    0.94;
    11    1    0    0    0    0        1    0.9862450376062364    -8.573098731692122    1    1    1.06    0.94;
    12    1    0    0    0    0        1    0.987436841293505    -9.575795751610592    1    1    1.06    0.94;
    13    1    0    0    0    700        1    0.9868917671675335    -7.662888474467707    1    2    1.06    0.94;
    14    1    0    0    0    0        1    0.9876907835781438    -7.125674663425229    1    1    1.06    0.94;
    15    1    0    0    0    0        1    0.9841455743533726    -9.864082570102878    1    1    1.06    0.94;
    16    1    0    0    0    0        1    0.9878282335575471    -7.778969661856262    1    1    1.06    0.94;
    17    1    0    0    0    0        1    0.9878524000605523    -9.529189942706715    1    1    1.06    0.94;
    18    1    0    0    0    60        1    0.9890025056289704    -6.232346568087123    1    1    1.06    0.94;
    19    1    0    0    0    0        1    0.9907298603433849    -5.142004607895451    1    1    1.06    0.94;
    20    3    0    0    0    639.7323608398438        1    1    0    1    2    1.06    0.94;
    21    1    0    0    0    0        1    1.038293393541999    -0.5701744455194696    1    1    1.06    0.94;
    22    1    0    0    0    0        1    1.035731277823961    -1.61439624661549    1    1    1.06    0.94;
    23    1    0    0    0    0        1    1.050393920793355    0.4391767200202014    1    1    1.06    0.94;
    24    1    0    0    0    0        1    1.047901094955165    -0.5813634101511655    1    1    1.06    0.94;
    25    1    0    0    0    0        1    1.047459850880758    -2.990163005134808    1    1    1.06    0.94;
    26    1    0    0    0    0        1    1.044976263019211    -4.016546795959168    1    1    1.06    0.94;
    27    1    0    0    0    0        1    1.035575458762803    -1.006967271623952    1    1    1.06    0.94;
    28    1    0    0    0    60        1    1.059952617120034    0.0016290779370507    1    1    1.06    0.94;
    29    1    0    0    0    90        1    1.063205750206957    -4.629039516037054    1    1    1.06    0.94;
    30    1    0    0    0    30        1    1.038773945416479    2.219878601454337    1    1    1.06    0.94;
    31    1    0    0    0    30        1    1.05070474900697    3.165723405945314    1    1    1.06    0.94;
    32    1    0    0    0    30        1    1.047742067460943    -0.2482355356549827    1    1    1.06    0.94;
    33    1    356    123    0    0        1    0.9917317636853626    -12.76821572917973    1    1    1.06    0.94;
    34    1    0    0    0    160        1    1.034112347497919    -13.12017350078172    1    2    1.06    0.94;
    35    1    408    149    0    0        1    0.9855655896648629    -13.83117974535341    1    1    1.06    0.94;
    36    1    0    0    0    160        1    1.027257635927675    -14.2367805899673    1    2    1.06    0.94;
    37    1    339    122    0    0        1    0.9927137092625126    -12.65741144124989    1    1    1.06    0.94;
    38    1    0    0    0    160        1    1.035145939413885    -12.99303678849568    1    2    1.06    0.94;
    39    1    452    165    0    0        1    0.9817500931407894    -13.92484906275436    1    1    1.06    0.94;
    40    1    0    0    0    160        1    1.023023154226578    -14.37545694098481    1    2    1.06    0.94;
    41    1    506    162    0    0        1    0.986309481578889    -11.97285826629744    1    1    1.06    0.94;
    42    1    0    0    0    160        1    1.027883071137522    -12.46973211802351    1    2    1.06    0.94;
    43    1    475    154    0    0        1    0.9862047876393862    -11.52241093628559    1    1    1.06    0.94;
    44    1    0    0    0    150        1    1.025030056418401    -11.98886839905131    1    2    1.06    0.94;
    45    1    457    157    0    0        1    0.9874942068906776    -13.99921253780792    1    1    1.06    0.94;
    46    1    0    0    0    180        1    1.034943291812064    -14.45181460868687    1    2    1.06    0.94;
    47    1    470    160    0    0        1    0.9902693950027279    -12.02938299722688    1    1    1.06    0.94;
    48    1    0    0    0    180        1    1.03782329709544    -12.49170810174354    1    2    1.06    0.94;
    49    1    399    115    0    0        1    0.9930985851245272    -11.36656568641174    1    1    1.06    0.94;
    50    1    0    0    0    150        1    1.032824049551514    -11.75555111105442    1    2    1.06    0.94;
    51    1    509    166    0    0        1    0.9843542492655909    -14.19977726503393    1    1    1.06    0.94;
    52    1    0    0    0    180        1    1.031520659381348    -14.70415054366228    1    2    1.06    0.94;
    53    1    427    142    0    0        1    0.9895723013343539    -12.12244549520184    1    1    1.06    0.94;
    54    1    0    0    0    160        1    1.031580845400967    -12.54227308191488    1    2    1.06    0.94;
    55    1    107    32    0    0        1    0.9921510802231153    -10.46033593021242    1    1    1.06    0.94;
    56    1    0    0    0    60        1    1.007830158655088    -10.5670527809742    1    2    1.06    0.94;
    57    1    0    0    0    0        1    0.8301161612190145    -3.897216932027359    1    2    1.06    0.94;
    58    1    0    0    0    0        1    0.8652384615523296    -4.144104591967174    1    2    1.06    0.94;
    59    1    0    0    0    0        1    0.8301161612190145    -3.897216932027359    1    2    1.06    0.94;
    60    1    0    0    0    0        1    0.8652384615523296    -4.144104591967174    1    2    1.06    0.94;
    61    1    0    0    0    0        1    1.038564309428563    3.370828525790308    1    1    1.06    0.94;
    62    1    0    0    0    0        1    1.038564309428563    3.370828525790308    1    1    1.06    0.94;
    63    1    0    0    0    0        1    1.038564309428563    3.370828525790308    1    1    1.06    0.94;
    64    1    0    0    0    0        1    1.035575458762803    -1.006967271623952    1    1    1.06    0.94;
    65    1    0    0    0    0        1    1.047729276988619    0.0120626124125823    1    1    1.06    0.94;
    66    1    0    0    0    0        1    1.044814468972535    -4.613297339994154    1    1    1.06    0.94;
    67    1    0    0    0    0        1    0.9899682435646787    -13.10006408735085    1    2    1.06    0.94;
    68    1    0    0    0    0        1    0.9834061785851718    -14.2166706728356    1    2    1.06    0.94;
    69    1    0    0    0    0        1    0.9909577610780295    -12.972926294404    1    2    1.06    0.94;
    70    1    0    0    0    0        1    0.9793524926627036    -14.355346253423    1    2    1.06    0.94;
    71    1    0    0    0    0        1    0.9840049405793033    -12.44962160582554    1    2    1.06    0.94;
    72    1    0    0    0    0        1    0.9840084078613259    -11.97006766820812    1    2    1.06    0.94;
    73    1    0    0    0    0        1    0.9852413124217793    -14.42906463386622    1    2    1.06    0.94;
    74    1    0    0    0    0        1    0.9879829068243802    -12.46895812240843    1    2    1.06    0.94;
    75    1    0    0    0    0        1    0.9914905509615914    -11.73675014960493    1    2    1.06    0.94;
    76    1    0    0    0    0        1    0.9819829745011981    -14.68139966967757    1    2    1.06    0.94;
    77    1    0    0    0    0        1    0.9875448405231624    -12.52216297504618    1    2    1.06    0.94;
    78    1    0    0    0    0        1    0.9916969157278571    -10.55971573638104    1    2    1.06    0.94;
    79    3    0    0    0    0        1    1    0    1    1    1.06    0.94;
    80    2    0    0    0    0        1    1.00000004336093    -3.643451548575006    1    1    1.06    0.94;
    81    2    0    0    0    0        1    1.000000029969399    -1.9809524303749    1    1    1.06    0.94;
    82    2    0    0    0    0        1    1.000000033963585    -1.787455926717655    1    1    1.06    0.94;
    83    1    0    0    0    0        1    1.047406245030133    1.202311272451438    1    1    1.06    0.94;
    84    1    0    0    0    0        1    1.047406245030133    1.202311272451438    1    1    1.06    0.94;
    85    1    0    0    0    0        1    1.047406245030133    1.202311272451438    1    1    1.06    0.94;
    86    1    0    0    0    0        1    1.050371733910435    4.608094811478566    1    1    1.06    0.94;
    87    1    0    0    0    0        1    1.050371733910435    4.608094811478566    1    1    1.06    0.94;
    88    1    0    0    0    0        1    1.050371733910435    4.608094811478566    1    1    1.06    0.94;
];
%% generator data
%	bus	Pg	Qg	Qmax	Qmin	Vg	mBase	status	Pmax	Pmin	Pc1	Pc2	Qc1min	Qc1max	Qc2min	Qc2max	ramp_agc	ramp_10	ramp_30	ramp_q	apf
mpc.gen = [
  20  1599.9977  0.0046  9999  0  1  100  1  0  0   0 0 0 0 0 0 0 0 0 0 0;
  61  200  0  0  0  1.038564309428563  100  1  400  0   0 0 0 0 0 0 0 0 0 0 0;
  62  200  0  0  0  1.038564309428563  100  1  400  0   0 0 0 0 0 0 0 0 0 0 0;
  63  200  0  0  0  1.038564309428563  100  1  400  0   0 0 0 0 0 0 0 0 0 0 0;
  79  459.3848  70.1733  300  -150  1  100  1  660  0   0 0 0 0 0 0 0 0 0 0 0;
  80  400  77.15900000000001  300  -150  1.00000004336093  100  1  660  0   0 0 0 0 0 0 0 0 0 0 0;
  81  300  49.1904  300  -150  1.000000029969399  100  1  660  0   0 0 0 0 0 0 0 0 0 0 0;
  82  400  60.1368  300  -150  1.000000033963585  100  1  660  0   0 0 0 0 0 0 0 0 0 0 0;
  83  200  0  0  0  1.047406245030133  100  1  400  0   0 0 0 0 0 0 0 0 0 0 0;
  84  200  0  0  0  1.047406245030133  100  1  400  0   0 0 0 0 0 0 0 0 0 0 0;
  85  200  0  0  0  1.047406245030133  100  1  400  0   0 0 0 0 0 0 0 0 0 0 0;
  86  200  0  0  0  1.050371733910435  100  1  400  0   0 0 0 0 0 0 0 0 0 0 0;
  87  200  0  0  0  1.050371733910435  100  1  400  0   0 0 0 0 0 0 0 0 0 0 0;
  88  200  0  0  0  1.050371733910435  100  1  400  0   0 0 0 0 0 0 0 0 0 0 0;
57    -799.9988403320312    -258.332275390625    9999  -9999  1  100  1  -9999  0   0 0 0 0 0 0 0 0 0 0 0;
58    784.0588989257812    -273.3570251464844    9999  -9999  1  100  1  -9999  0   0 0 0 0 0 0 0 0 0 0 0;
59    -799.9988403320312    -258.332275390625    9999  -9999  1.038564309428563  100  1  -9999  0   0 0 0 0 0 0 0 0 0 0 0;
60    784.0588989257812    -273.3570251464844    9999  -9999  1.038564309428563  100  1  -9999  0   0 0 0 0 0 0 0 0 0 0 0;
];
%% branch data
%	fbus	tbus	r	x	b	rateA	rateB	rateC	ratio	angle	status	angmin	angmax   
mpc.branch = [
  2  1  0.00042  0.00912  0.0123  0  0  0  0    0  1  -360  360  ;
  3  2  0.00052  0.00448  0.0042  0  0  0  0    0  1  -360  360  ;
  4  1  0.00037  0.00422  0.00654  0  0  0  0    0  1  -360  360  ;
  4  2  0.0009700000000000001  0.00602  0.01156  0  0  0  0    0  1  -360  360  ;
  4  3  0.0008899999999999999  0.00103  0.00258  0  0  0  0    0  1  -360  360  ;
  4  7  0.00076  0.0091  0.008  0  0  0  0    0  1  -360  360  ;
  5  3  0.0005  0.0073  0.008999999999999999  0  0  0  0    0  1  -360  360  ;
  5  3  0.0005  0.0073  0.008999999999999999  0  0  0  0    0  1  -360  360  ;
  5  8  0.00028  0.00356  0.0028  0  0  0  0    0  1  -360  360  ;
  6  5  0.00027  0.00377  0.0042  0  0  0  0    0  1  -360  360  ;
  7  10  0.00081  0.008500000000000001  0.00642  0  0  0  0    0  1  -360  360  ;
  8  6  0.00019  0.00267  0.0038  0  0  0  0    0  1  -360  360  ;
  8  9  0.00019  0.0027  0.0034  0  0  0  0    0  1  -360  360  ;
  8  11  0.0004  0.0076  0.008999999999999999  0  0  0  0    0  1  -360  360  ;
  9  6  0.0004  0.0061  0.0168  0  0  0  0    0  1  -360  360  ;
  12  10  0.0009  0.00107  0.00314  0  0  0  0    0  1  -360  360  ;
  12  11  9.000000000000001e-05  0.00634  0.00702  0  0  0  0    0  1  -360  360  ;
  13  5  0  0.0001  0  0  0  0  0    0  1  -360  360  ;
  14  6  0.00012  0.00163  0.00612  0  0  0  0    0  1  -360  360  ;
  15  7  9.000000000000001e-05  0.00134  0.00502  0  0  0  0    0  1  -360  360  ;
  16  9  0.00012  0.00163  0.00612  0  0  0  0    0  1  -360  360  ;
  17  12  0.0001  0.0002  0.0002  0  0  0  0    0  1  -360  360  ;
  18  6  0.0003  0.0038  0.0368  0  0  0  0    0  1  -360  360  ;
  19  11  0.0007  0.0098  0.0368  0  0  0  0    0  1  -360  360  ;
  21  22  0.00186  0.01307  0.04824  1596  1596  1596  0    0  1  -360  360  ;
  21  22  0.00186  0.01307  0.04824  1596  1596  1596  0    0  1  -360  360  ;
  21  22  0.00186  0.01307  0.04824  1596  1596  1596  0    0  1  -360  360  ;
  21  22  0.00186  0.01307  0.04824  1596  1596  1596  0    0  1  -360  360  ;
  23  24  0.00186  0.01307  0.04824  1596  1596  1596  0    0  1  -360  360  ;
  23  24  0.00186  0.01307  0.04824  1596  1596  1596  0    0  1  -360  360  ;
  23  24  0.00186  0.01307  0.04824  1596  1596  1596  0    0  1  -360  360  ;
  23  24  0.00186  0.01307  0.04824  1596  1596  1596  0    0  1  -360  360  ;
  25  26  0.00186  0.01307  0.04824  1596  1596  1596  0    0  1  -360  360  ;
  25  26  0.00186  0.01307  0.04824  1596  1596  1596  0    0  1  -360  360  ;
  25  26  0.00186  0.01307  0.04824  1596  1596  1596  0    0  1  -360  360  ;
  25  26  0.00186  0.01307  0.04824  1596  1596  1596  0    0  1  -360  360  ;
  1  66  5e-05  0.01637    0    1500  1500  1500  0.9523809523809523    0  1  -360  360  
  13  58  0  0.006    0    3000  3000  3000  1.114043782552    0  1  -360  360  
  13  60  0  0.006    0    3000  3000  3000  1.114043782552    0  1  -360  360  
  18  64  5e-05  0.01637    0    1500  1500  1500  0.9523809523809523    0  1  -360  360  
  19  65  5e-05  0.01637    0    1500  1500  1500  0.9523809523809523    0  1  -360  360  
  20  57  0  0.006    0    3000  3000  3000  1.175425967261905    0  1  -360  360  
  20  59  0  0.006    0    3000  3000  3000  1.175425967261905    0  1  -360  360  
  21  30  0  0.035    0    300  300  300  1    0  1  -360  360  
  21  30  0  0.035    0    300  300  300  1    0  1  -360  360  
  21  30  0  0.035    0    300  300  300  1    0  1  -360  360  
  21  30  0  0.035    0    300  300  300  1    0  1  -360  360  
  22  64  4e-05  -0.0019    0    1500  1500  1500  1    0  1  -360  360  
  23  31  0  0.035    0    300  300  300  1    0  1  -360  360  
  23  31  0  0.035    0    300  300  300  1    0  1  -360  360  
  23  31  0  0.035    0    300  300  300  1    0  1  -360  360  
  23  31  0  0.035    0    300  300  300  1    0  1  -360  360  
  24  65  4e-05  -0.0019    0    1500  1500  1500  1    0  1  -360  360  
  25  32  0  0.035    0    300  300  300  1    0  1  -360  360  
  25  32  0  0.035    0    300  300  300  1    0  1  -360  360  
  25  32  0  0.035    0    300  300  300  1    0  1  -360  360  
  25  32  0  0.035    0    300  300  300  1    0  1  -360  360  
  26  66  4e-05  0.0019    0    1500  1500  1500  1    0  1  -360  360  
  27  64  0.0003  0.01922    0    450  450  450  1    0  1  -360  360  
  28  65  0.0003  0.01922    0    450  450  450  1    0  1  -360  360  
  29  66  0.0003  0.01922    0    450  450  450  1    0  1  -360  360  
  61  30  0  0.02167    0    300  300  300  1.000000015    0  1  -360  360  
  61  30  0  0.02167    0    300  300  300  1.000000015    0  1  -360  360  
  62  30  0  0.02167    0    300  300  300  1.000000015    0  1  -360  360  
  62  30  0  0.02167    0    300  300  300  1.000000015    0  1  -360  360  
  63  30  0  0.02167    0    300  300  300  1.000000015    0  1  -360  360  
  63  30  0  0.02167    0    300  300  300  1.000000015    0  1  -360  360  
  67  1  5e-05  0.0157    0    1000  1000  1000  1    0  1  -360  360  
  67  33  5e-05  -0.00158    0    1000  1000  1000  1    0  1  -360  360  
  67  34  0.00021  0.02668    0    360  360  360  1    0  1  -360  360  
  68  2  5e-05  0.0157    0    1000  1000  1000  1    0  1  -360  360  
  68  35  5e-05  -0.00158    0    1000  1000  1000  1    0  1  -360  360  
  68  36  0.00021  0.02668    0    360  360  360  1    0  1  -360  360  
  69  3  5e-05  0.0157    0    1000  1000  1000  1    0  1  -360  360  
  69  37  5e-05  -0.00158    0    1000  1000  1000  1    0  1  -360  360  
  69  38  0.00021  0.02668    0    360  360  360  1    0  1  -360  360  
  70  4  5e-05  0.0157    0    1000  1000  1000  1    0  1  -360  360  
  70  39  5e-05  -0.00158    0    1000  1000  1000  1    0  1  -360  360  
  70  40  0.00021  0.02668    0    360  360  360  1    0  1  -360  360  
  71  5  5e-05  0.0157    0    1000  1000  1000  1    0  1  -360  360  
  71  41  5e-05  -0.00158    0    1000  1000  1000  1    0  1  -360  360  
  71  42  0.00021  0.02668    0    360  360  360  1    0  1  -360  360  
  72  6  5e-05  0.0157    0    1000  1000  1000  1    0  1  -360  360  
  72  43  5e-05  -0.00158    0    1000  1000  1000  1    0  1  -360  360  
  72  44  0.00021  0.02668    0    360  360  360  1    0  1  -360  360  
  73  7  5e-05  0.0157    0    1000  1000  1000  1    0  1  -360  360  
  73  45  5e-05  -0.00158    0    1000  1000  1000  1    0  1  -360  360  
  73  46  0.00021  0.02668    0    360  360  360  1    0  1  -360  360  
  74  8  5e-05  0.0157    0    1000  1000  1000  1    0  1  -360  360  
  74  47  5e-05  -0.00158    0    1000  1000  1000  1    0  1  -360  360  
  74  48  0.00021  0.02668    0    360  360  360  1    0  1  -360  360  
  75  9  5e-05  0.0157    0    1000  1000  1000  1    0  1  -360  360  
  75  49  5e-05  -0.00158    0    1000  1000  1000  1    0  1  -360  360  
  75  50  0.00021  0.02668    0    360  360  360  1    0  1  -360  360  
  76  10  5e-05  0.0157    0    1000  1000  1000  1    0  1  -360  360  
  76  51  5e-05  -0.00158    0    1000  1000  1000  1    0  1  -360  360  
  76  52  0.00021  0.02668    0    360  360  360  1    0  1  -360  360  
  77  11  5e-05  0.0157    0    1000  1000  1000  1    0  1  -360  360  
  77  53  5e-05  -0.00158    0    1000  1000  1000  1    0  1  -360  360  
  77  54  0.00021  0.02668    0    360  360  360  1    0  1  -360  360  
  78  12  5e-05  0.0157    0    1000  1000  1000  1    0  1  -360  360  
  78  55  5e-05  -0.00158    0    1000  1000  1000  1    0  1  -360  360  
  78  56  0.00021  0.02668    0    360  360  360  1    0  1  -360  360  
  79  14  0.00026  0.02671    0    750  750  750  1    0  1  -360  360  
  80  15  0.00026  0.02671    0    750  750  750  1    0  1  -360  360  
  81  16  0.00028  0.03331    0    750  750  750  1    0  1  -360  360  
  82  17  0.00028  0.03331    0    750  750  750  1    0  1  -360  360  
  83  32  0  0.01389    0    450  450  450  0.9999999965217392    0  1  -360  360  
  84  32  0  0.01389    0    450  450  450  0.9999999965217392    0  1  -360  360  
  85  32  0  0.01389    0    450  450  450  0.9999999965217392    0  1  -360  360  
  86  31  0  0.01389    0    450  450  450  0.9999999965217392    0  1  -360  360  
  87  31  0  0.01389    0    450  450  450  0.9999999965217392    0  1  -360  360  
  88  31  0  0.01389    0    450  450  450  0.9999999965217392    0  1  -360  360  
];
%% busmap data
%	busname  bus_no 
mpc.map = {
'B01525.00',1;
'B02525.00',2;
'B03525.00',3;
'B04525.00',4;
'B05525.00',5;
'B06525.00',6;
'B07525.00',7;
'B08525.00',8;
'B09525.00',9;
'B10525.00',10;
'B11525.00',11;
'B12525.00',12;
'B13525.00',13;
'B14525.00',14;
'B15525.00',15;
'B16525.00',16;
'B17525.00',17;
'B18525.00',18;
'B19525.00',19;
'B21525.00',20;
'B22230.00',21;
'B23230.00',22;
'B24230.00',23;
'B25230.00',24;
'B26230.00',25;
'B27230.00',26;
'B2838.50',27;
'B2938.50',28;
'B3038.50',29;
'B3138.50',30;
'B3238.50',31;
'B3338.50',32;
'B34230.00',33;
'B3537.00',34;
'B36230.00',35;
'B3737.00',36;
'B38230.00',37;
'B3937.00',38;
'B40230.00',39;
'B4137.00',40;
'B42230.00',41;
'B4337.00',42;
'B44230.00',43;
'B4537.00',44;
'B46230.00',45;
'B4737.00',46;
'B48230.00',47;
'B4937.00',48;
'B50230.00',49;
'B5137.00',50;
'B52230.00',51;
'B5337.00',52;
'B54230.00',53;
'B5537.00',54;
'B56230.00',55;
'B5737.00',56;
'DN-01210.00',57;
'DN-02199.00',58;
'DP-01210.00',59;
'DP-02199.00',60;
'PV18-010.40',61;
'PV18-020.40',62;
'PV18-030.40',63;
'T3-011.00',64;
'T3-021.00',65;
'T3-031.00',66;
'T3-041.00',67;
'T3-051.00',68;
'T3-061.00',69;
'T3-071.00',70;
'T3-081.00',71;
'T3-091.00',72;
'T3-101.00',73;
'T3-111.00',74;
'T3-121.00',75;
'T3-131.00',76;
'T3-141.00',77;
'T3-151.00',78;
'TP14-0120.00',79;
'TP15-0120.00',80;
'TP16-0120.00',81;
'TP17-0120.00',82;
'WT01-010.69',83;
'WT01-020.69',84;
'WT01-030.69',85;
'WT19-010.69',86;
'WT19-020.69',87;
'WT19-030.69',88;
};
%% busmap data
%	busname  bus_no 
mpc.zonemap = {
'0',2;
'FH',1;
};
